-- WELL COMPDAT TEST FOR DUAL POROSITY MODEL

RUNSPEC
TITLE
    DUAL POROSITY 
DIMENS
    5    5    10  /

DUALPORO

OIL
GAS
WATER
DISGAS
VAPOIL

FIELD

ROCKCOMP
 'HYSTER '    2  /

EQLDIMS
    2  100    3    1    1 /

EQLOPTS
 'MOBILE'   /

ENDSCALE
 'NODIR'     'REVERS'           2   10  /

TABDIMS
  2   1   13   25    1   20 /

-- Gravity drainage for dual porosity runs
GRAVDR

WELLDIMS
    4   13    1    4 /

NUPCOL
    4 /

UNIFOUT

START
   1 'JAN' 2025  /

GRID      ==============================================================

INIT

NODPPM

NEWTRAN

EQUALS
 'DX'      150    /    MATRIX AND FRACTURES
 'DY'      150    /
 'DZ'       15    /
 'PORO'   0.18      1  5  1  5  1  5  /  MATRIX PROPERTIES
 'PERMX'     1    /
 'PERMY'     1    /
 'PERMZ'     1    /
 'PORO'   0.005     1  5  1  5  6  10  /  FRACTURE PROPERTIES
 'PERMX'   500    /
 'PERMY'   500    /
 'PERMZ'   500    / 
 'PERMZ'   100      1  5  1  5  9   9  /
 'NTG'     0.6      5  5  5  5  9  10  /
 'TOPS'   4000      1  5  1  5  1   1  /
/

ADD
 'PORO'   0.005     1  5  1  5  6  10  /  FRACTURE PROPERTIES
/

SIGMAV
 125*0.1 /

DZMTRXV
 125*10.0 /

GRIDFILE
 0 1 /

EDIT

PROPS     ==============================================================

SWFN
    .2500  .0000 4.000
    .3000  .0200 2.950
    .4000  .0550 1.650
    .5000  .1000  .850
    .6000  .1450  .300
    .7000  .2000  .000
/
    .0000  .0000 4.000
    .1000  .0500 1.850
    .2000  .1100  .900
    .2500  .1450  .725
    .3000  .1800  .550
    .4000  .2600  .400
    .5000  .3550  .290
    .6000  .4750  .200
    .7000  .5850  .160
    .8000  .7150  .110
    .9000  .8500  .050
   1.0000 1.0000  .000
/

STONE1
SOF3
    .3000  .0000 .000
    .4000  .1100 .110
    .5000  .2400 .240
    .6000  .4200 .420
    .7000  .7050 .705
    .7500  .9200 .920
/
    .0000  .0000  .000
    .1000  .0210  .021
    .2000  .0570  .057
    .3000  .1020  .102
    .4000  .1730  .173
    .5000  .2400  .240
    .6000  .3300  .330
    .7000  .4500  .450
    .7500  .5190  .519
    .8000  .5870  .587
    .9000  .7700  .770
   1.0000 1.0000 1.000
/
SGFN
    .0000  .0000  .000
    .0400  .0000  .200
    .1000  .0220  .500
    .2000  .1000 1.000
    .3000  .2400 1.500
    .4000  .3400 2.000
    .5000  .4200 2.500
    .6000  .5000 3.000
    .7000  .8125 3.500
    .7500 1.0000 3.900
/
    .0000  .0000  .000
    1.0    1.0    .000
/

ENPTVD
 4000    0.25  0.26 3*   0.75  0.75  1*
 5000    0.30  0.35 3*   0.70  0.70  1*  /

 4000    0.00  0.00 3*   1.0   2*
 5000    0.00  0.00 3*   1.0   2*  /

TZONE
  F  F  F  /

PVTW
  .000  1.000    3.03E-06    .500    0.00E-01 /

--   RS      POIL  FVFO  VISO
PVTO
    0.001    14.7 1.062  1.04    /
    0.0905  264.7 1.15   0.975   /
    0.18    514.7 1.207  0.91    /
    0.371  1014.7 1.295  0.83    /
    0.636  2014.7 1.435  0.695   /
    0.775  2514.7 1.5    0.641   /
    0.93   3014.7 1.565  0.594   /
    1.270  4014.7 1.695  0.51
           5014.7 1.671  0.549
           9014.7 1.579  0.74    /
    1.618  5014.7 1.827  0.449
           9014.7 1.726  0.449   /
    1.8    9000.0 1.83   0.305
           9100.0 1.82   0.305   /
/

--   PGAS  RV      BG     VISC
PVTG
     14.7 0.0001   5.9    0.01    /
    264.7 0.00905  3.0    0.012   /
    514.7 0.018    2.0    0.014   /
   1014.7 0.0371   1.0    0.016   /
   2014.7 0.0636   0.8    0.017   /
   2514.7 0.0775   0.7    0.018   /
   3014.7 0.093    0.6    0.019   /
   4014.7 0.1270   0.55   0.020
          0.10     0.50   0.019
          0.0      0.45   0.017   /
   5014.7 0.1618   0.50   0.022
          0.0      0.45   0.020   /
   9000.0 0.18     0.45   0.024
          0.0      0.40   0.022   /
/

ROCKTABH
 1000.0 0.70 0.70
 2000.0 0.75 0.75
 3000.0 0.80 0.80
 4000.0 0.85 0.85 /
 2000.0 0.80 0.80
 3000.0 0.85 0.85
 4000.0 0.90 0.90 /
 3000.0 0.90 0.90
 4000.0 0.95 0.95 /
 4000.0 1.0  1.0
 5000.0 1.0  1.0  /
 5000.0 1.0  1.0
 6000.0 1.0  1.0  /
/
 1000.0 0.60 0.60
 2000.0 0.65 0.65
 3000.0 0.70 0.70
 4000.0 0.75 0.75 /
 2000.0 0.70 0.70
 3000.0 0.75 0.75
 4000.0 0.80 0.80 /
 3000.0 0.80 0.80
 4000.0 0.95 0.95 /
 4000.0 1.0  1.0
 5000.0 1.0  1.0  /
 5000.0 1.0  1.0
 6000.0 1.0  1.0  /
/

OVERBURD
 3000.0     10
 5000.0     20  /
 3000.0     10
 5000.0     20  /

DENSITY
 52.0000  64.0000   .04400 /

REGIONS     ============================================================

EQUALS                                          
'SATNUM' 1   1 5  1 5  1  5  /
'SATNUM' 2   1 5  1 5  6 10  /
/

EQLNUM
 125*1  125*2 /

ENDNUM
 125*1  125*2 /

ROCKNUM
 1 2 1 2  1 2 1 2  1 2 1 2  1 2 1 2  1 2 1 2  1 2 1 2  1
 1 2 1 2  1 2 1 2  1 2 1 2  1 2 1 2  1 2 1 2  1 2 1 2  1
 1 2 1 2  1 2 1 2  1 2 1 2  1 2 1 2  1 2 1 2  1 2 1 2  1
 1 2 1 2  1 2 1 2  1 2 1 2  1 2 1 2  1 2 1 2  1 2 1 2  1
 1 2 1 2  1 2 1 2  1 2 1 2  1 2 1 2  1 2 1 2  1 2 1 2  1

 1 2 1 2  1 2 1 2  1 2 1 2  1 2 1 2  1 2 1 2  1 2 1 2  1
 1 2 1 2  1 2 1 2  1 2 1 2  1 2 1 2  1 2 1 2  1 2 1 2  1 
 1 2 1 2  1 2 1 2  1 2 1 2  1 2 1 2  1 2 1 2  1 2 1 2  1
 1 2 1 2  1 2 1 2  1 2 1 2  1 2 1 2  1 2 1 2  1 2 1 2  1
 1 2 1 2  1 2 1 2  1 2 1 2  1 2 1 2  1 2 1 2  1 2 1 2  1      
/

SOLUTION   =============================================================

EQUIL
4010  3959  6000  0  4010   0   0   0  10  /
4012  3959  6000  0  4012   0   0   0  10  /

RPTRST
 'PRES' 'SOIL' 'SWAT' 'SGAS' 'RS' 'RV' 'FIP=2' 'EQUIL' /

SUMMARY

ALL

MSUMLINS
MSUMNEWT

SCHEDULE   ===========================================================

RPTSCHED                                         
   'PRES' 'SOIL' 'SWAT' 'SGAS' 'RS' 'RV' 'RESTART=2' 'FIP=2' 'WELLS=2' 'CPU=2' 
'NEWTON=2' 'WELSPECS' /

WELSPECS
'PV'  'G'   5  5  4000  'OIL'  /   Vertical producer
'PH'  'G'   4  5  4000  'OIL'  /   Horisontal producer
'IW'  'G'   1  1  4000  'WAT'  /
'IG'  'G'   5  1  4000  'GAS'  /
/

COMPDAT                                         
'PV'   5   5   6  10 'OPEN'   0  1*  0.50  1*    0.0  0.0  Z /
'PH'   4   5   8   8 'OPEN'   0  1*  0.50  1*    0.0  0.0  Y /
'PH'   2   5   9   9 'OPEN'   0  1*  0.50  1*    0.0  0.0  Y /
'IW'   1   1   6  10 'OPEN'   0  1*  0.50  1*    0.0  0.0  Z /
'IG'   5   1   6  10 'OPEN'   0  1*  0.50  1*    0.0  0.0  Z /
/

WCONINJE                                       
'IW' 'WAT' 'OPEN' 'RATE' 100.0  /
'IG' 'GAS' 'OPEN' 'RATE' 200.0 /
/

WCONPROD                                      
'PV' 'OPEN' 'LRAT'   1* 1* 1*  250.0  1*  2500 /
'PH' 'OPEN' 'LRAT'   1* 1* 1*  250.0  1*  2500 /
/

TSTEP
 1.0  5.0 10.0 20.0 30 30 30 30 30 30 30 30 30 30 30 30 30
/

END
